version 2
run OnOff-0-20130106-15:55:29-7100
attr configname OnOff
attr datetime 20130106-15:55:29
attr experiment OnOff
attr inifile omnetpp.ini
attr iterationvars ""
attr iterationvars2 $repetition=0
attr measurement ""
attr network OnOffNetwork
attr processid 7100
attr repetition 0
attr replication #0
attr resultdir results
attr runnumber 0
attr seedset 0

statistic OnOffNetwork.OnOff 	"Time of generation out"
field count 193
field mean 0.50905293719112
field stddev 0.49526393800409
field sum 98.247216877886
field sqrsum 97.108017033707
field min 0
field max 2.922535031778
bin	-INF	0
bin	-1.090434849812	0
bin	-0.94504353650373	0
bin	-0.79965222319547	0
bin	-0.6542609098872	0
bin	-0.50886959657893	0
bin	-0.36347828327067	0
bin	-0.2180869699624	0
bin	-0.072695656654133	30
bin	0.072695656654133	31
bin	0.2180869699624	35
bin	0.36347828327067	30
bin	0.50886959657893	10
bin	0.6542609098872	17
bin	0.79965222319547	11
bin	0.94504353650373	3
bin	1.090434849812	5
bin	1.2358261631203	7
bin	1.3812174764285	5
bin	1.5266087897368	2
bin	1.6720001030451	2
bin	1.8173914163533	3
bin	1.9627827296616	0
bin	2.1081740429699	1
bin	2.2535653562781	0
bin	2.3989566695864	0
bin	2.5443479828947	0
bin	2.6897392962029	0
bin	2.8351306095112	1
bin	2.9805219228195	0
bin	3.1259132361277	0
bin	3.271304549436	0
statistic OnOffNetwork.sink 	"interarrival times out"
field count 98
field mean 0.99830878252989
field stddev 1.1669384549637
field sum 97.834260687929
field sqrsum 229.75810137137
field min 0
field max 6.497799876867
bin	-INF	0
bin	-3.2488999384335	0
bin	-2.8157132799757	0
bin	-2.3825266215179	0
bin	-1.9493399630601	0
bin	-1.5161533046023	0
bin	-1.0829666461445	0
bin	-0.6497799876867	0
bin	-0.2165933292289	20
bin	0.2165933292289	32
bin	0.6497799876867	13
bin	1.0829666461445	16
bin	1.5161533046023	4
bin	1.9493399630601	2
bin	2.3825266215179	4
bin	2.8157132799757	2
bin	3.2488999384335	1
bin	3.6820865968913	2
bin	4.1152732553491	0
bin	4.5484599138069	0
bin	4.9816465722647	0
bin	5.4148332307225	1
bin	5.8480198891803	0
bin	6.2812065476381	1
bin	6.7143932060959	0
bin	7.1475798645537	0
bin	7.5807665230115	0
bin	8.0139531814693	0
bin	8.4471398399271	0
bin	8.8803264983849	0
bin	9.3135131568427	0
bin	9.7466998153005	0
