version 2
run OnOff-0-20130106-16:07:35-5144
attr configname OnOff
attr datetime 20130106-16:07:35
attr experiment OnOff
attr inifile omnetpp.ini
attr iterationvars ""
attr iterationvars2 $repetition=0
attr measurement ""
attr network OnOffNetwork
attr processid 5144
attr repetition 0
attr replication #0
attr resultdir results
attr runnumber 0
attr seedset 0

statistic OnOffNetwork.OnOff 	"Time of generation out"
field count 348437
field mean 0.50053032731919
field stddev 0.50126839726461
field sum 174403.28566012
field sqrsum 174845.64950115
field min 0
field max 6.413957719073
bin	-INF	0
bin	-1.090434849812	0
bin	-0.94504353650373	0
bin	-0.79965222319547	0
bin	-0.6542609098872	0
bin	-0.50886959657893	0
bin	-0.36347828327067	0
bin	-0.2180869699624	0
bin	-0.072695656654133	47131
bin	0.072695656654133	75848
bin	0.2180869699624	56865
bin	0.36347828327067	42495
bin	0.50886959657893	31681
bin	0.6542609098872	24213
bin	0.79965222319547	17712
bin	0.94504353650373	13216
bin	1.090434849812	9846
bin	1.2358261631203	7468
bin	1.3812174764285	5366
bin	1.5266087897368	4168
bin	1.6720001030451	3113
bin	1.8173914163533	2350
bin	1.9627827296616	1742
bin	2.1081740429699	1322
bin	2.2535653562781	944
bin	2.3989566695864	735
bin	2.5443479828947	565
bin	2.6897392962029	429
bin	2.8351306095112	285
bin	2.9805219228195	237
bin	3.1259132361277	171
bin	3.271304549436	535
statistic OnOffNetwork.sink 	"interarrival times out"
field count 174315
field mean 1.0005025145454
field stddev 0.99705885508502
field sum 174402.59582298
field sqrsum 347780.37806894
field min 0
field max 12.553952379498
bin	-INF	0
bin	-3.2488999384335	0
bin	-2.8157132799757	0
bin	-2.3825266215179	0
bin	-1.9493399630601	0
bin	-1.5161533046023	0
bin	-1.0829666461445	0
bin	-0.6497799876867	0
bin	-0.2165933292289	33641
bin	0.2165933292289	49284
bin	0.6497799876867	32274
bin	1.0829666461445	20976
bin	1.5161533046023	13390
bin	1.9493399630601	8664
bin	2.3825266215179	5657
bin	2.8157132799757	3621
bin	3.2488999384335	2443
bin	3.6820865968913	1573
bin	4.1152732553491	969
bin	4.5484599138069	630
bin	4.9816465722647	424
bin	5.4148332307225	283
bin	5.8480198891803	176
bin	6.2812065476381	101
bin	6.7143932060959	80
bin	7.1475798645537	43
bin	7.5807665230115	34
bin	8.0139531814693	20
bin	8.4471398399271	11
bin	8.8803264983849	8
bin	9.3135131568427	5
bin	9.7466998153005	8
