version 2
run SCHRR-0-20130106-13:47:48-9301
attr configname SCHRR
attr datetime 20130106-13:47:48
attr experiment SCHRR
attr inifile omnetpp.ini
attr iterationvars ""
attr iterationvars2 $repetition=0
attr measurement ""
attr network tirtproject.Schedulers.SCHRR
attr processid 9301
attr repetition 0
attr replication #0
attr resultdir results
attr runnumber 0
attr seedset 0

statistic SCHRR.SCH 	"out hist"
field count 139
field mean 0.97841726618705
field stddev 0.81175803044354
field sum 136
field sqrsum 224
field min 0
field max 2
bin	-INF	0
bin	-1	0
bin	-0.86666666666667	0
bin	-0.73333333333333	0
bin	-0.6	0
bin	-0.46666666666667	0
bin	-0.33333333333333	0
bin	-0.2	0
bin	-0.066666666666667	47
bin	0.066666666666667	0
bin	0.2	0
bin	0.33333333333333	0
bin	0.46666666666667	0
bin	0.6	0
bin	0.73333333333333	0
bin	0.86666666666667	0
bin	1	48
bin	1.1333333333333	0
bin	1.2666666666667	0
bin	1.4	0
bin	1.5333333333333	0
bin	1.6666666666667	0
bin	1.8	0
bin	1.9333333333333	44
bin	2.0666666666667	0
bin	2.2	0
bin	2.3333333333333	0
bin	2.4666666666667	0
bin	2.6	0
bin	2.7333333333333	0
bin	2.8666666666667	0
bin	3	0
statistic SCHRR.SCH 	"in hist"
field count 343
field mean 0.77551020408163
field stddev 0.94855119705453
field sum 266
field sqrsum 514
field min 0
field max 2
bin	-INF	0
bin	-1	0
bin	-0.86666666666667	0
bin	-0.73333333333333	0
bin	-0.6	0
bin	-0.46666666666667	0
bin	-0.33333333333333	0
bin	-0.2	0
bin	-0.066666666666667	201
bin	0.066666666666667	0
bin	0.2	0
bin	0.33333333333333	0
bin	0.46666666666667	0
bin	0.6	0
bin	0.73333333333333	0
bin	0.86666666666667	0
bin	1	18
bin	1.1333333333333	0
bin	1.2666666666667	0
bin	1.4	0
bin	1.5333333333333	0
bin	1.6666666666667	0
bin	1.8	0
bin	1.9333333333333	124
bin	2.0666666666667	0
bin	2.2	0
bin	2.3333333333333	0
bin	2.4666666666667	0
bin	2.6	0
bin	2.7333333333333	0
bin	2.8666666666667	0
bin	3	0
statistic SCHRR.sink 	"interarrival times"
field count 139
field mean 1.4190282151386
field stddev 0.54338694097724
field sum 197.24492190427
field sqrsum 320.64328220716
field min 1
field max 3.867885714572
bin	-INF	0
bin	-0.433942857286	0
bin	-0.24275047631453	0
bin	-0.051558095343067	0
bin	0.1396342856284	0
bin	0.33082666659987	0
bin	0.52201904757133	0
bin	0.7132114285428	0
bin	0.90440380951427	50
bin	1.0955961904857	23
bin	1.2867885714572	21
bin	1.4779809524287	13
bin	1.6691733334001	8
bin	1.8603657143716	8
bin	2.0515580953431	6
bin	2.2427504763145	4
bin	2.433942857286	1
bin	2.6251352382575	1
bin	2.8163276192289	0
bin	3.0075200002004	1
bin	3.1987123811719	0
bin	3.3899047621433	1
bin	3.5810971431148	0
bin	3.7722895240863	2
bin	3.9634819050577	0
bin	4.1546742860292	0
bin	4.3458666670007	0
bin	4.5370590479721	0
bin	4.7282514289436	0
bin	4.9194438099151	0
bin	5.1106361908865	0
bin	5.301828571858	0
