version 2
run ACBannedIP-0-20130107-19:44:01-2780
attr configname ACBannedIP
attr datetime 20130107-19:44:01
attr experiment ACBannedIP
attr inifile omnetpp.ini
attr iterationvars ""
attr iterationvars2 $repetition=0
attr measurement ""
attr network tirtproject.AdmissionControl.ACBannedIP
attr processid 2780
attr repetition 0
attr replication #0
attr resultdir results
attr runnumber 0
attr seedset 0

statistic ACBannedIP.OnOff 	"Time of generation out"
field count 573
field mean 1.0450227616731
field stddev 0.99620818713939
field sum 598.79804243871
field sqrsum 1193.4279742085
field min 0
field max 6.227432167978
bin	-INF	0
bin	-2.4395664439965	0
bin	-2.1142909181303	0
bin	-1.7890153922641	0
bin	-1.4637398663979	0
bin	-1.1384643405317	0
bin	-0.8131888146655	0
bin	-0.4879132887993	0
bin	-0.1626377629331	81
bin	0.1626377629331	125
bin	0.4879132887993	102
bin	0.8131888146655	67
bin	1.1384643405317	52
bin	1.4637398663979	36
bin	1.7890153922641	25
bin	2.1142909181303	32
bin	2.4395664439965	16
bin	2.7648419698627	9
bin	3.0901174957289	5
bin	3.4153930215951	9
bin	3.7406685474613	7
bin	4.0659440733275	2
bin	4.3912195991937	1
bin	4.7164951250599	2
bin	5.0417706509261	0
bin	5.3670461767923	0
bin	5.6923217026585	0
bin	6.0175972285247	2
bin	6.3428727543909	0
bin	6.6681482802571	0
bin	6.9934238061233	0
bin	7.3186993319895	0
statistic ACBannedIP.AC 	"Interarrival times out"
field count 451
field mean 0
field stddev 0
field sum 0
field sqrsum 0
field min 0
field max 0
bin	-INF	0
bin	-0.5	0
bin	-0.46666666666667	0
bin	-0.43333333333333	0
bin	-0.4	0
bin	-0.36666666666667	0
bin	-0.33333333333333	0
bin	-0.3	0
bin	-0.26666666666667	0
bin	-0.23333333333333	0
bin	-0.2	0
bin	-0.16666666666667	0
bin	-0.13333333333333	0
bin	-0.1	0
bin	-0.066666666666667	0
bin	-0.033333333333333	0
bin	-6.9388939039072e-018	451
bin	0.033333333333333	0
bin	0.066666666666667	0
bin	0.1	0
bin	0.13333333333333	0
bin	0.16666666666667	0
bin	0.2	0
bin	0.23333333333333	0
bin	0.26666666666667	0
bin	0.3	0
bin	0.33333333333333	0
bin	0.36666666666667	0
bin	0.4	0
bin	0.43333333333333	0
bin	0.46666666666667	0
bin	0.5	0
statistic ACBannedIP.AC 	"Arrivals sources out"
field count 511
field mean 0.80234833659491
field stddev 0.91933179271162
field sum 410
field sqrsum 760
field min 0
field max 2
attr type  int
bin	-INF	0
bin	-1	0
bin	0	276
bin	1	60
bin	2	175
bin	3	0
statistic ACBannedIP.AC 	"Forwarder sources out"
field count 451
field mean 0.77605321507761
field stddev 0.97568366312817
field sum 350
field sqrsum 700
field min 0
field max 2
attr type  int
bin	-INF	0
bin	-1	0
bin	0	276
bin	1	0
bin	2	175
bin	3	0
statistic ACBannedIP.AC 	"Discarded sources out"
field count 60
field mean 1
field stddev 0
field sum 60
field sqrsum 60
field min 1
field max 1
attr type  int
bin	-INF	0
bin	0	0
bin	1	60
bin	2	0
statistic ACBannedIP.sink 	"interarrival times out"
field count 451
field mean 1.3270422892129
field stddev 1.3216850978723
field sum 598.49607243502
field sqrsum 1580.3127721211
field min 0.00037454741
field max 8.309272914804
bin	-INF	0
bin	-4.154074636287	0
bin	-3.6001480784607	0
bin	-3.0462215206345	0
bin	-2.4922949628082	0
bin	-1.9383684049819	0
bin	-1.3844418471557	0
bin	-0.8305152893294	0
bin	-0.27658873150313	72
bin	0.27733782632313	136
bin	0.8312643841494	88
bin	1.3851909419757	44
bin	1.9391174998019	43
bin	2.4930440576282	28
bin	3.0469706154545	12
bin	3.6008971732807	10
bin	4.154823731107	5
bin	4.7087502889333	4
bin	5.2626768467595	3
bin	5.8166034045858	0
bin	6.3705299624121	0
bin	6.9244565202383	3
bin	7.4783830780646	2
bin	8.0323096358909	1
bin	8.5862361937171	0
bin	9.1401627515434	0
bin	9.6940893093697	0
bin	10.248015867196	0
bin	10.801942425022	0
bin	11.355868982848	0
bin	11.909795540675	0
bin	12.463722098501	0
