version 2
run ACBlue-0-20121208-17:55:58-2676
attr configname ACBlue
attr datetime 20121208-17:55:58
attr experiment ACBlue
attr inifile omnetpp.ini
attr iterationvars ""
attr iterationvars2 $repetition=0
attr measurement ""
attr network tirtproject.AdmissionControl.ACBlue
attr processid 2676
attr repetition 0
attr replication #0
attr resultdir results
attr runnumber 0
attr seedset 0

statistic ACBlue.sink 	"interarrival times"
field count 715
field mean 0.71509723825546
field stddev 0.74984354142704
field sum 511.29452535266
field sqrsum 767.08275336139
field min 0
field max 5.932529878754
bin	-INF	0
bin	-1.7367887453305	0
bin	-1.5040425788714	0
bin	-1.2712964124122	0
bin	-1.0385502459531	0
bin	-0.80580407949397	0
bin	-0.57305791303483	0
bin	-0.3403117465757	0
bin	-0.10756558011657	116
bin	0.12518058634257	161
bin	0.3579267528017	144
bin	0.59067291926083	74
bin	0.82341908571997	80
bin	1.0561652521791	30
bin	1.2889114186382	25
bin	1.5216575850974	18
bin	1.7544037515565	10
bin	1.9871499180156	14
bin	2.2198960844748	10
bin	2.4526422509339	9
bin	2.685388417393	9
bin	2.9181345838522	6
bin	3.1508807503113	3
bin	3.3836269167704	1
bin	3.6163730832296	2
bin	3.8491192496887	1
bin	4.0818654161478	1
bin	4.314611582607	0
bin	4.5473577490661	0
bin	4.7801039155252	0
bin	5.0128500819844	0
bin	5.2455962484435	1
