version 2
run ACBlue-0-20130107-19:48:56-4056
attr configname ACBlue
attr datetime 20130107-19:48:56
attr experiment ACBlue
attr inifile omnetpp.ini
attr iterationvars ""
attr iterationvars2 $repetition=0
attr measurement ""
attr network tirtproject.AdmissionControl.ACBlue
attr processid 4056
attr repetition 0
attr replication #0
attr resultdir results
attr runnumber 0
attr seedset 0

statistic ACBlue.OnOff 	"Time of generation out"
field count 573
field mean 1.0450227616731
field stddev 0.99620818713939
field sum 598.79804243871
field sqrsum 1193.4279742085
field min 0
field max 6.227432167978
bin	-INF	0
bin	-2.4395664439965	0
bin	-2.1142909181303	0
bin	-1.7890153922641	0
bin	-1.4637398663979	0
bin	-1.1384643405317	0
bin	-0.8131888146655	0
bin	-0.4879132887993	0
bin	-0.1626377629331	81
bin	0.1626377629331	125
bin	0.4879132887993	102
bin	0.8131888146655	67
bin	1.1384643405317	52
bin	1.4637398663979	36
bin	1.7890153922641	25
bin	2.1142909181303	32
bin	2.4395664439965	16
bin	2.7648419698627	9
bin	3.0901174957289	5
bin	3.4153930215951	9
bin	3.7406685474613	7
bin	4.0659440733275	2
bin	4.3912195991937	1
bin	4.7164951250599	2
bin	5.0417706509261	0
bin	5.3670461767923	0
bin	5.6923217026585	0
bin	6.0175972285247	2
bin	6.3428727543909	0
bin	6.6681482802571	0
bin	6.9934238061233	0
bin	7.3186993319895	0
statistic ACBlue.AC 	"Interarrival times out"
field count 467
field mean 0
field stddev 0
field sum 0
field sqrsum 0
field min 0
field max 0
bin	-INF	0
bin	-0.5	0
bin	-0.46666666666667	0
bin	-0.43333333333333	0
bin	-0.4	0
bin	-0.36666666666667	0
bin	-0.33333333333333	0
bin	-0.3	0
bin	-0.26666666666667	0
bin	-0.23333333333333	0
bin	-0.2	0
bin	-0.16666666666667	0
bin	-0.13333333333333	0
bin	-0.1	0
bin	-0.066666666666667	0
bin	-0.033333333333333	0
bin	-6.9388939039072e-018	467
bin	0.033333333333333	0
bin	0.066666666666667	0
bin	0.1	0
bin	0.13333333333333	0
bin	0.16666666666667	0
bin	0.2	0
bin	0.23333333333333	0
bin	0.26666666666667	0
bin	0.3	0
bin	0.33333333333333	0
bin	0.36666666666667	0
bin	0.4	0
bin	0.43333333333333	0
bin	0.46666666666667	0
bin	0.5	0
statistic ACBlue.AC 	"Arrivals sources out"
field count 511
field mean 0.80234833659491
field stddev 0.91933179271162
field sum 410
field sqrsum 760
field min 0
field max 2
attr type  int
bin	-INF	0
bin	-1	0
bin	0	276
bin	1	60
bin	2	175
bin	3	0
statistic ACBlue.AC 	"Forwarder sources out"
field count 467
field mean 0.80728051391863
field stddev 0.92260040947513
field sum 377
field sqrsum 701
field min 0
field max 2
attr type  int
bin	-INF	0
bin	-1	0
bin	0	252
bin	1	53
bin	2	162
bin	3	0
statistic ACBlue.AC 	"Discarded sources out"
field count 44
field mean 0.75
field stddev 0.89247500127845
field sum 33
field sqrsum 59
field min 0
field max 2
attr type  int
bin	-INF	0
bin	-1	0
bin	0	24
bin	1	7
bin	2	13
bin	3	0
statistic ACBlue.sink 	"interarrival times out"
field count 467
field mean 1.2826552462527
field stddev 1.211635032359
field sum 599
field sqrsum 1452.4261969693
field min 0
field max 8.309272914804
bin	-INF	0
bin	-4.154636457402	0
bin	-3.6006849297484	0
bin	-3.0467334020948	0
bin	-2.4927818744412	0
bin	-1.9388303467876	0
bin	-1.384878819134	0
bin	-0.8309272914804	0
bin	-0.2769757638268	70
bin	0.2769757638268	126
bin	0.8309272914804	110
bin	1.384878819134	54
bin	1.9388303467876	47
bin	2.4927818744412	28
bin	3.0467334020948	11
bin	3.6006849297484	9
bin	4.154636457402	0
bin	4.7085879850556	6
bin	5.2625395127092	2
bin	5.8164910403628	0
bin	6.3704425680164	0
bin	6.92439409567	1
bin	7.4783456233236	2
bin	8.0322971509772	1
bin	8.5862486786308	0
bin	9.1402002062844	0
bin	9.694151733938	0
bin	10.248103261592	0
bin	10.802054789245	0
bin	11.356006316899	0
bin	11.909957844552	0
bin	12.463909372206	0
