version 2
run ACSize-0-20130107-19:57:40-4652
attr configname ACSize
attr datetime 20130107-19:57:40
attr experiment ACSize
attr inifile omnetpp.ini
attr iterationvars ""
attr iterationvars2 $repetition=0
attr measurement ""
attr network tirtproject.AdmissionControl.ACSize
attr processid 4652
attr repetition 0
attr replication #0
attr resultdir results
attr runnumber 0
attr seedset 0

statistic ACSize.OnOff 	"Time of generation out"
field count 573
field mean 1.0450227616731
field stddev 0.99620818713939
field sum 598.79804243871
field sqrsum 1193.4279742085
field min 0
field max 6.227432167978
bin	-INF	0
bin	-2.4395664439965	0
bin	-2.1142909181303	0
bin	-1.7890153922641	0
bin	-1.4637398663979	0
bin	-1.1384643405317	0
bin	-0.8131888146655	0
bin	-0.4879132887993	0
bin	-0.1626377629331	81
bin	0.1626377629331	125
bin	0.4879132887993	102
bin	0.8131888146655	67
bin	1.1384643405317	52
bin	1.4637398663979	36
bin	1.7890153922641	25
bin	2.1142909181303	32
bin	2.4395664439965	16
bin	2.7648419698627	9
bin	3.0901174957289	5
bin	3.4153930215951	9
bin	3.7406685474613	7
bin	4.0659440733275	2
bin	4.3912195991937	1
bin	4.7164951250599	2
bin	5.0417706509261	0
bin	5.3670461767923	0
bin	5.6923217026585	0
bin	6.0175972285247	2
bin	6.3428727543909	0
bin	6.6681482802571	0
bin	6.9934238061233	0
bin	7.3186993319895	0
statistic ACSize.AC 	"Interarrival times out"
field count 72
field mean 0
field stddev 0
field sum 0
field sqrsum 0
field min 0
field max 0
bin	-INF	0
bin	-0.5	0
bin	-0.46666666666667	0
bin	-0.43333333333333	0
bin	-0.4	0
bin	-0.36666666666667	0
bin	-0.33333333333333	0
bin	-0.3	0
bin	-0.26666666666667	0
bin	-0.23333333333333	0
bin	-0.2	0
bin	-0.16666666666667	0
bin	-0.13333333333333	0
bin	-0.1	0
bin	-0.066666666666667	0
bin	-0.033333333333333	0
bin	-6.9388939039072e-018	72
bin	0.033333333333333	0
bin	0.066666666666667	0
bin	0.1	0
bin	0.13333333333333	0
bin	0.16666666666667	0
bin	0.2	0
bin	0.23333333333333	0
bin	0.26666666666667	0
bin	0.3	0
bin	0.33333333333333	0
bin	0.36666666666667	0
bin	0.4	0
bin	0.43333333333333	0
bin	0.46666666666667	0
bin	0.5	0
statistic ACSize.AC 	"Arrivals sources out"
field count 511
field mean 0.80234833659491
field stddev 0.91933179271162
field sum 410
field sqrsum 760
field min 0
field max 2
attr type  int
bin	-INF	0
bin	-1	0
bin	0	276
bin	1	60
bin	2	175
bin	3	0
statistic ACSize.AC 	"Forwarder sources out"
field count 72
field mean 0.81944444444444
field stddev 0.8932672878676
field sum 59
field sqrsum 105
field min 0
field max 2
attr type  int
bin	-INF	0
bin	-1	0
bin	0	36
bin	1	13
bin	2	23
bin	3	0
statistic ACSize.AC 	"Discarded sources out"
field count 439
field mean 0.7995444191344
field stddev 0.9245014809719
field sum 351
field sqrsum 655
field min 0
field max 2
attr type  int
bin	-INF	0
bin	-1	0
bin	0	240
bin	1	47
bin	2	152
bin	3	0
statistic ACSize.sink 	"interarrival times out"
field count 72
field mean 8.2743938315095
field stddev 8.3303978562493
field sum 595.75635586869
field sqrsum 9856.6052355641
field min 0.226754704327
field max 46.901287620891
bin	-INF	0
bin	-23.110511753955	0
bin	-19.998876226184	0
bin	-16.887240698413	0
bin	-13.775605170642	0
bin	-10.663969642871	0
bin	-7.5523341151003	0
bin	-4.4406985873294	0
bin	-1.3290630595585	13
bin	1.7825724682125	22
bin	4.8942079959834	11
bin	8.0058435237543	7
bin	11.117479051525	4
bin	14.229114579296	6
bin	17.340750107067	3
bin	20.452385634838	2
bin	23.564021162609	2
bin	26.67565669038	1
bin	29.787292218151	0
bin	32.898927745922	0
bin	36.010563273693	0
bin	39.122198801464	0
bin	42.233834329235	0
bin	45.345469857006	1
bin	48.457105384776	0
bin	51.568740912547	0
bin	54.680376440318	0
bin	57.792011968089	0
bin	60.90364749586	0
bin	64.015283023631	0
bin	67.126918551402	0
bin	70.238554079173	0
