version 2
run General-0-20121208-17:50:32-3825
attr configname General
attr datetime 20121208-17:50:32
attr experiment General
attr inifile omnetpp.ini
attr iterationvars ""
attr iterationvars2 $repetition=0
attr measurement ""
attr network ""
attr processid 3825
attr repetition 0
attr replication #0
attr resultdir results
attr runnumber 0
attr seedset 0

statistic SCHWRR.sink 	"interarrival times"
field count 160
field mean 1.1629652223508
field stddev 1.1812511101714
field sum 186.07443557612
field sqrsum 438.25941280327
field min 0.002706874578
field max 8.561018259311
bin	-INF	0
bin	-2.1124475862985	0
bin	-1.830426991515	0
bin	-1.5484063967314	0
bin	-1.2663858019479	0
bin	-0.98436520716437	0
bin	-0.70234461238083	0
bin	-0.4203240175973	0
bin	-0.13830342281377	19
bin	0.14371717196977	24
bin	0.4257377667533	28
bin	0.70775836153683	19
bin	0.98977895632037	19
bin	1.2717995511039	12
bin	1.5538201458874	5
bin	1.835840740671	10
bin	2.1178613354545	7
bin	2.399881930238	3
bin	2.6819025250216	4
bin	2.9639231198051	0
bin	3.2459437145886	0
bin	3.5279643093722	4
bin	3.8099849041557	1
bin	4.0920054989392	2
bin	4.3740260937228	0
bin	4.6560466885063	2
bin	4.9380672832898	0
bin	5.2200878780734	0
bin	5.5021084728569	0
bin	5.7841290676404	0
bin	6.066149662424	0
bin	6.3481702572075	1
